/*--------------------------------*- C++ -*----------------------------------*\
| =========                 |                                                 |
| \\      /  F ield         | OpenFOAM: The Open Source CFD Toolbox           |
|  \\    /   O peration     | Version:  v2006                                 |
|   \\  /    A nd           | Website:  www.openfoam.com                      |
|    \\/     M anipulation  |                                                 |
\*---------------------------------------------------------------------------*/
// * * * * * * * * * * * * * * * * * * * * * * * * * * * * * * * * * * * * * //
FoamFile
{
    version         2;
    format          ascii;
    class           dictionary;
    object          blockMeshDict;
}

vertices        ( ( 0 0 0 ) ( 1 0 0 ) ( 1 1 0 ) ( 0 1 0 ) ( 0 0 1 ) ( 1 0 1 ) ( 1 1 1 ) ( 0 1 1 ) );

n               21;

blocks          ( hex ( 0 1 2 3 4 5 6 7 ) ( $n $n $n ) simpleGrading ( 1 1 1 ) );

edges           ( );

boundary        ( yp { type cyclic ; neighbourPatch ym ; faces ( ( 3 7 6 2 ) ) ; } ym { type cyclic ; neighbourPatch yp ; faces ( ( 1 5 4 0 ) ) ; } xm { type cyclic ; neighbourPatch xp ; faces ( ( 0 4 7 3 ) ) ; } xp { type cyclic ; neighbourPatch xm ; faces ( ( 2 6 5 1 ) ) ; } zp { type wall ; faces ( ( 4 5 6 7 ) ) ; } zm { type wall ; faces ( ( 0 3 2 1 ) ) ; } );

mergePatchPairs ( );


// ************************************************************************* //
