/*--------------------------------*- C++ -*----------------------------------*\
| =========                 |                                                 |
| \\      /  F ield         | OpenFOAM: The Open Source CFD Toolbox           |
|  \\    /   O peration     | Version:  v2006                                 |
|   \\  /    A nd           | Website:  www.openfoam.com                      |
|    \\/     M anipulation  |                                                 |
\*---------------------------------------------------------------------------*/
FoamFile
{
    version     2.0;
    format      ascii;
    class       dictionary;
    location    "system";
    object      fvSolution;
}
// * * * * * * * * * * * * * * * * * * * * * * * * * * * * * * * * * * * * * //

solvers
{
    p
    {
        solver          smoothSolver;
        tolerance       1e-016;
        relTol          0.1;
        smoother        DIC;
    }


    //U
    //{
        //type            coupled;  
        //solver          PBiCCCG;
        //preconditioner  DILU;
        //tolerance       (1e-09 1e-09 1e-09);
        //relTol          (0.001 0.001 0.001);
    //}

    U
    {
        solver          PBiCGStab;
        preconditioner  DILU;
        tolerance       1e-016;
        relTol          0.1;
    }

}


SIMPLE
{
    nNonOrthogonalCorrectors 1;
    consistent yes;
    //residualControl
    //{
        //p               1e-8;
        //U               1e-8;
    //}
    
    pRefPoint       (0.5 0.5 0.5);
    pRefValue       0;
}

relaxationFactors
{
    //fields
    //{
        //p               0.3;
    //}
    equations
    {
        U               0.9;
    }
}



// ************************************************************************* //
