/*--------------------------------*- C++ -*----------------------------------*\
| =========                 |                                                 |
| \\      /  F ield         | OpenFOAM: The Open Source CFD Toolbox           |
|  \\    /   O peration     | Version:  v2006                                 |
|   \\  /    A nd           | Website:  www.openfoam.com                      |
|    \\/     M anipulation  |                                                 |
\*---------------------------------------------------------------------------*/
FoamFile
{
    version     2.0;
    format      ascii;
    class       dictionary;
    location    "system";
    object      fvSolution;
}
// * * * * * * * * * * * * * * * * * * * * * * * * * * * * * * * * * * * * * //

solvers
{
    p
    {
        solver          GAMG;
        tolerance       0;
        relTol          0.1;
        smoother        DIC;
	      nPreSweeps      	1;              
    	  nPostSweeps     	2;              
    	  nFinestSweeps   	2;              
    	  scaleCorrection 	true;           
    	  directSolveCoarsestLevel false; 
    	  cacheAgglomeration 	on;  
	      agglomerator    	faceAreaPair;   
    	  mergeLevels     	1;
    }

    pFinal
    {
        $p;
        smoother        DICGaussSeidel;
        tolerance       1e-06;
        relTol          0;
    }

    "(U|k|nuTilda)"
    {
        solver          smoothSolver;
        smoother        symGaussSeidel;
        tolerance       1e-05;
        relTol          0.1;
    }

    "(U|k|nuTilda)Final"
    {
        $U;
        tolerance       1e-05;
        relTol          0;
    }
}

SIMPLE
{
    nNonOrthogonalCorrectors 0;
    pRefCell        0;
    pRefValue       0;
}

PIMPLE
{
    nOuterCorrectors 1;
    nCorrectors     2;
    nNonOrthogonalCorrectors 0;
    pRefCell        0;
    pRefValue       0;
}

relaxationFactors
{
    fields
    {
      p 0.3;
    }
    equations
    {
      U 0.7;
    }
}



// ************************************************************************* //
