/*--------------------------------*- C++ -*----------------------------------*\
| =========                 |                                                 |
| \\      /  F ield         | OpenFOAM: The Open Source CFD Toolbox           |
|  \\    /   O peration     | Version:  v2006                                 |
|   \\  /    A nd           | Website:  www.openfoam.com                      |
|    \\/     M anipulation  |                                                 |
\*---------------------------------------------------------------------------*/
FoamFile
{
    version     2.0;
    format      binary;
    class       polyBoundaryMesh;
    arch        "LSB;label=32;scalar=64";
    location    "constant/polyMesh";
    object      boundary;
}
// * * * * * * * * * * * * * * * * * * * * * * * * * * * * * * * * * * * * * //

6
(
    bottom
    {
        type            wall;
        inGroups        1(wall);
        nFaces          1;
        startFace       39;
    }
    top
    {
        type            wall;
        inGroups        1(wall);
        nFaces          1;
        startFace       40;
    }
    outlet
    {
        type            cyclic;
        inGroups        1(cyclic);
        nFaces          40;
        startFace       41;
        matchTolerance  0.0001;
        transform       unknown;
        neighbourPatch  inlet;
    }
    inlet
    {
        type            cyclic;
        inGroups        1(cyclic);
        nFaces          40;
        startFace       81;
        matchTolerance  0.0001;
        transform       unknown;
        neighbourPatch  outlet;
    }
    left
    {
        type            cyclic;
        inGroups        1(cyclic);
        nFaces          40;
        startFace       121;
        matchTolerance  0.0001;
        transform       unknown;
        neighbourPatch  right;
    }
    right
    {
        type            cyclic;
        inGroups        1(cyclic);
        nFaces          40;
        startFace       161;
        matchTolerance  0.0001;
        transform       unknown;
        neighbourPatch  left;
    }
)

// ************************************************************************* //
